717

Au         1.48432        0.85697        0.00000
Au         4.45297        0.85697        0.00000
Au         7.42162        0.85697        0.00000
Au        10.39026        0.85697        0.00000
Au        13.35891        0.85697        0.00000
Au        16.32756        0.85697        0.00000
Au         0.00000        3.42790        0.00000
Au         2.96865        3.42790        0.00000
Au         5.93729        3.42790        0.00000
Au         8.90594        3.42790        0.00000
Au        11.87459        3.42790        0.00000
Au        14.84323        3.42790        0.00000
Au         1.48432        5.99882        0.00000
Au         4.45297        5.99882        0.00000
Au         7.42162        5.99882        0.00000
Au        10.39026        5.99882        0.00000
Au        13.35891        5.99882        0.00000
Au        16.32756        5.99882        0.00000
Au         0.00000        8.56974        0.00000
Au         2.96865        8.56974        0.00000
Au         5.93729        8.56974        0.00000
Au         8.90594        8.56974        0.00000
Au        11.87459        8.56974        0.00000
Au        14.84323        8.56974        0.00000
Au         1.48432       11.14067        0.00000
Au         4.45297       11.14067        0.00000
Au         7.42162       11.14067        0.00000
Au        10.39026       11.14067        0.00000
Au        13.35891       11.14067        0.00000
Au        16.32756       11.14067        0.00000
Au         0.00000       13.71159        0.00000
Au         2.96865       13.71159        0.00000
Au         5.93729       13.71159        0.00000
Au         8.90594       13.71159        0.00000
Au        11.87459       13.71159        0.00000
Au        14.84323       13.71159        0.00000
Au         0.00000        1.71395        2.42389
Au         2.96865        1.71395        2.42389
Au         5.93729        1.71395        2.42389
Au         8.90594        1.71395        2.42389
Au        11.87459        1.71395        2.42389
Au        14.84323        1.71395        2.42389
Au         1.48432        4.28487        2.42389
Au         4.45297        4.28487        2.42389
Au         7.42162        4.28487        2.42389
Au        10.39026        4.28487        2.42389
Au        13.35891        4.28487        2.42389
Au        16.32756        4.28487        2.42389
Au         0.00000        6.85579        2.42389
Au         2.96865        6.85579        2.42389
Au         5.93729        6.85579        2.42389
Au         8.90594        6.85579        2.42389
Au        11.87459        6.85579        2.42389
Au        14.84323        6.85579        2.42389
Au         1.48432        9.42672        2.42389
Au         4.45297        9.42672        2.42389
Au         7.42162        9.42672        2.42389
Au        10.39026        9.42672        2.42389
Au        13.35891        9.42672        2.42389
Au        16.32756        9.42672        2.42389
Au         0.00000       11.99764        2.42389
Au         2.96865       11.99764        2.42389
Au         5.93729       11.99764        2.42389
Au         8.90594       11.99764        2.42389
Au        11.87459       11.99764        2.42389
Au        14.84323       11.99764        2.42389
Au         1.48432       14.56856        2.42389
Au         4.45297       14.56856        2.42389
Au         7.42162       14.56856        2.42389
Au        10.39026       14.56856        2.42389
Au        13.35891       14.56856        2.42389
Au        16.32756       14.56856        2.42389
Au         0.00000        0.00000        4.84778
Au         2.96865        0.00000        4.84778
Au         5.93729        0.00000        4.84778
Au         8.90594        0.00000        4.84778
Au        11.87459        0.00000        4.84778
Au        14.84323        0.00000        4.84778
Au         1.48432        2.57092        4.84778
Au         4.45297        2.57092        4.84778
Au         7.42162        2.57092        4.84778
Au        10.39026        2.57092        4.84778
Au        13.35891        2.57092        4.84778
Au        16.32756        2.57092        4.84778
Au         0.00000        5.14185        4.84778
Au         2.96865        5.14185        4.84778
Au         5.93729        5.14185        4.84778
Au         8.90594        5.14185        4.84778
Au        11.87459        5.14185        4.84778
Au        14.84323        5.14185        4.84778
Au         1.48432        7.71277        4.84778
Au         4.45297        7.71277        4.84778
Au         7.42162        7.71277        4.84778
Au        10.39026        7.71277        4.84778
Au        13.35891        7.71277        4.84778
Au        16.32756        7.71277        4.84778
Au         0.00000       10.28369        4.84778
Au         2.96865       10.28369        4.84778
Au         5.93729       10.28369        4.84778
Au         8.90594       10.28369        4.84778
Au        11.87459       10.28369        4.84778
Au        14.84323       10.28369        4.84778
Au         1.48432       12.85462        4.84778
Au         4.45297       12.85462        4.84778
Au         7.42162       12.85462        4.84778
Au        10.39026       12.85462        4.84778
Au        13.35891       12.85462        4.84778
Au        16.32756       12.85462        4.84778
Au         1.48432        0.85697       24.84778
Au         4.45297        0.85697       24.84778
Au         7.42162        0.85697       24.84778
Au        10.39026        0.85697       24.84778
Au        13.35891        0.85697       24.84778
Au        16.32756        0.85697       24.84778
Au         0.00000        3.42790       24.84778
Au         2.96865        3.42790       24.84778
Au         5.93729        3.42790       24.84778
Au         8.90594        3.42790       24.84778
Au        11.87459        3.42790       24.84778
Au        14.84323        3.42790       24.84778
Au         1.48432        5.99882       24.84778
Au         4.45297        5.99882       24.84778
Au         7.42162        5.99882       24.84778
Au        10.39026        5.99882       24.84778
Au        13.35891        5.99882       24.84778
Au        16.32756        5.99882       24.84778
Au         0.00000        8.56974       24.84778
Au         2.96865        8.56974       24.84778
Au         5.93729        8.56974       24.84778
Au         8.90594        8.56974       24.84778
Au        11.87459        8.56974       24.84778
Au        14.84323        8.56974       24.84778
Au         1.48432       11.14067       24.84778
Au         4.45297       11.14067       24.84778
Au         7.42162       11.14067       24.84778
Au        10.39026       11.14067       24.84778
Au        13.35891       11.14067       24.84778
Au        16.32756       11.14067       24.84778
Au         0.00000       13.71159       24.84778
Au         2.96865       13.71159       24.84778
Au         5.93729       13.71159       24.84778
Au         8.90594       13.71159       24.84778
Au        11.87459       13.71159       24.84778
Au        14.84323       13.71159       24.84778
Au         0.00000        1.71395       27.27167
Au         2.96865        1.71395       27.27167
Au         5.93729        1.71395       27.27167
Au         8.90594        1.71395       27.27167
Au        11.87459        1.71395       27.27167
Au        14.84323        1.71395       27.27167
Au         1.48432        4.28487       27.27167
Au         4.45297        4.28487       27.27167
Au         7.42162        4.28487       27.27167
Au        10.39026        4.28487       27.27167
Au        13.35891        4.28487       27.27167
Au        16.32756        4.28487       27.27167
Au         0.00000        6.85579       27.27167
Au         2.96865        6.85579       27.27167
Au         5.93729        6.85579       27.27167
Au         8.90594        6.85579       27.27167
Au        11.87459        6.85579       27.27167
Au        14.84323        6.85579       27.27167
Au         1.48432        9.42672       27.27167
Au         4.45297        9.42672       27.27167
Au         7.42162        9.42672       27.27167
Au        10.39026        9.42672       27.27167
Au        13.35891        9.42672       27.27167
Au        16.32756        9.42672       27.27167
Au         0.00000       11.99764       27.27167
Au         2.96865       11.99764       27.27167
Au         5.93729       11.99764       27.27167
Au         8.90594       11.99764       27.27167
Au        11.87459       11.99764       27.27167
Au        14.84323       11.99764       27.27167
Au         1.48432       14.56856       27.27167
Au         4.45297       14.56856       27.27167
Au         7.42162       14.56856       27.27167
Au        10.39026       14.56856       27.27167
Au        13.35891       14.56856       27.27167
Au        16.32756       14.56856       27.27167
Au         0.00000        0.00000       29.69556
Au         2.96865        0.00000       29.69556
Au         5.93729        0.00000       29.69556
Au         8.90594        0.00000       29.69556
Au        11.87459        0.00000       29.69556
Au        14.84323        0.00000       29.69556
Au         1.48432        2.57092       29.69556
Au         4.45297        2.57092       29.69556
Au         7.42162        2.57092       29.69556
Au        10.39026        2.57092       29.69556
Au        13.35891        2.57092       29.69556
Au        16.32756        2.57092       29.69556
Au         0.00000        5.14185       29.69556
Au         2.96865        5.14185       29.69556
Au         5.93729        5.14185       29.69556
Au         8.90594        5.14185       29.69556
Au        11.87459        5.14185       29.69556
Au        14.84323        5.14185       29.69556
Au         1.48432        7.71277       29.69556
Au         4.45297        7.71277       29.69556
Au         7.42162        7.71277       29.69556
Au        10.39026        7.71277       29.69556
Au        13.35891        7.71277       29.69556
Au        16.32756        7.71277       29.69556
Au         0.00000       10.28369       29.69556
Au         2.96865       10.28369       29.69556
Au         5.93729       10.28369       29.69556
Au         8.90594       10.28369       29.69556
Au        11.87459       10.28369       29.69556
Au        14.84323       10.28369       29.69556
Au         1.48432       12.85462       29.69556
Au         4.45297       12.85462       29.69556
Au         7.42162       12.85462       29.69556
Au        10.39026       12.85462       29.69556
Au        13.35891       12.85462       29.69556
Au        16.32756       12.85462       29.69556
H          6.01037        2.79665       21.20353
H          6.39862        2.28618       19.70174
O          5.70576        2.25297       20.42120
H          8.03429       10.86819       15.82222
H          6.68022       10.76707       16.72940
O          7.62261       10.44904       16.63170
H          4.77392        1.49470       10.73361
H          4.26265        0.43581       11.86677
O          4.72817        1.30704       11.71499
H          3.89977        8.58400       20.34914
H          5.03395        9.42010       21.17452
O          4.55159        8.54744       21.10690
H          5.48151        3.02602        8.51766
H          4.55280        1.68293        8.50023
O          5.46395        2.04246        8.69856
H         14.86358       13.43350       14.53374
H         13.58468       13.42613       15.54913
O         14.58247       13.41632       15.49348
H          6.62307        5.40157       17.32703
H          7.07318        5.96556       15.86210
O          6.30300        5.64125       16.41022
H          9.18355        7.41887       12.82151
H          8.27733        6.16501       13.34428
O          8.29554        6.96492       12.74545
H          6.21068       11.06486       14.60162
H          4.71509       11.39413       15.16864
O          5.64231       11.75009       15.05751
H         15.70646        7.40208       13.96683
H         14.10764        7.51710       14.27864
O         14.84312        7.80958       13.66848
H          8.05054        0.17172       16.69073
H          7.24824        1.56892       16.42461
O          8.14905        1.13666       16.44659
H          7.65697        4.07188       14.90643
H          8.59571        3.24235       15.95397
O          7.68792        3.63269       15.80453
H          1.55586        2.29473       11.89883
H          1.98091        3.71333       12.58702
O          2.32057        2.83672       12.24793
H          5.42579        8.20993        8.84206
H          6.79909        7.37739        9.13809
O          6.04235        7.50184        8.49727
H         11.31542        4.52706       21.18908
H         11.87864        5.10359       19.76884
O         11.35571        4.37034       20.20205
H         10.64365        5.80045       13.11349
H         11.80620        6.26609       12.06548
O         11.52593        6.26319       13.02476
H          6.30674        7.70210       17.17815
H          7.92067        7.69244       16.92949
O          7.09204        8.24965       16.88849
H          9.44625       12.23544       10.56879
H          9.84760       10.73845       10.05439
O          9.20239       11.26612       10.60579
H         -0.00359        4.02482       16.78028
H          1.30518        3.04823       16.77292
O          0.30612        3.07381       16.77255
H          9.48026        5.71800       11.24943
H         10.77036        5.54642       10.26308
O         10.12181        6.19972       10.65212
H         11.02453       -0.09291       15.78533
H          9.80200        0.71018       15.05927
O         10.62280        0.16121       14.90530
H         15.81428        0.28213       15.78884
H         15.57197        0.13219       14.18089
O         15.16480       -0.00275       15.08354
H         11.13138        5.03436       15.11613
H          9.51473        5.24409       15.02044
O         10.24113        4.62524       15.31736
H          0.75641        0.93869       20.50047
H          0.98012        2.49122       20.95464
O          0.31700        1.83132       20.60310
H         13.75708       11.26077       20.76610
H         13.20323       12.77520       21.02387
O         13.01465       11.80321       21.15977
H          3.03063        0.06225       16.92069
H          3.02604        1.69411       16.98142
O          3.60533        0.88023       16.95289
H         -0.00868        3.24430       10.67818
H          0.02674        4.55782       11.64776
O          0.31019        4.18847       10.76344
H          5.58922       -0.04110        9.38929
H          6.38780       -0.00931       10.81335
O          6.40225        0.29850        9.86265
H          6.51279       -0.05149       15.13357
H          7.52133        0.95139       14.33123
O          7.28514       -0.00496       14.49976
H         15.01221        0.84180       17.75908
H         13.63985        0.09774       17.27981
O         14.02995        0.95674       17.60954
H         15.82160       10.26361       18.28274
H         14.31894        9.85109       17.79432
O         14.84392       10.39812       18.44544
H          7.24522        9.12523       14.52377
H          8.23587        7.84851       14.75889
O          8.19007        8.80249       14.46459
H         10.55614        3.35113       17.45924
H         11.95283        4.12575       17.79968
O         11.53867        3.23676       17.60743
H          3.40219        1.02844       20.61568
H          2.94520       -0.00042       19.43277
O          2.84007        0.92512       19.79485
H         10.76305        1.68305       12.18734
H         12.30367        1.21021       11.92349
O         11.41458        0.93033       12.28402
H         14.15468       11.60628        9.05725
H         13.02375       10.55475        8.52625
O         13.99888       10.77362        8.52545
H          5.30582       13.42669       13.56215
H          5.10710       11.94085       12.91449
O          5.51332       12.84348       12.77652
H         14.74511        8.39819       16.19076
H         15.82469        9.62336       16.17846
O         15.27633        9.01320       15.60768
H         15.83615        8.14677       18.88122
H         15.80214        6.61152       18.32576
O         15.80714        7.57517       18.06094
H         12.45852        4.60034        8.71223
H         13.08919        3.66838        9.89561
O         12.25227        4.08835        9.54635
H          6.15261        4.31059       13.32292
H          7.51007        3.59476       12.76475
O          6.51742        3.51124       12.84504
H          3.88267        7.29562       12.75494
H          2.80770        7.73382       11.60642
O          3.13967        7.92604       12.52926
H         14.49027        2.15118       11.34408
H         14.81516        0.67969       11.97325
O         15.21560        1.54209       11.66551
H          8.61651        7.80146       10.73157
H          7.11438        8.12669       11.28343
O          7.86852        8.46542       10.72188
H          8.86516        6.68859        8.83302
H         10.45992        6.86053        8.52661
O          9.63192        7.33085        8.82994
H          1.16938       -0.00257       13.92579
H          2.26614        0.41271       12.78941
O          1.30991        0.17117       12.95086
H         11.58114        2.88488       15.19680
H         12.23318        1.71339       16.12908
O         11.38277        2.07368       15.74729
H         13.44763        1.51787        9.51371
H         13.44739        0.09277       10.31107
O         13.62932        0.53747        9.43475
H          5.14018       12.03528       21.23345
H          4.38813       11.20336       20.04642
O          5.27607       11.47095       20.41890
H         14.34703        9.12899       20.16854
H         13.07052        9.00345       21.17921
O         13.96184        8.62054       20.93895
H          2.43493        4.75488       10.70318
H          3.63977        5.44297       11.56432
O          2.71930        5.57597       11.19851
H          4.34432        6.45162        9.74128
H          4.98864        7.45157       10.86005
O          5.12780        6.60764       10.34313
H          9.42523        4.13593       19.17443
H          8.82916        5.34907       18.25810
O          9.31680        5.12759       19.10187
H         12.22293        8.32627       12.71415
H         13.00576        9.75654       12.62356
O         13.12094        8.76610       12.69099
H          9.86891       -0.00779        8.51650
H          8.54813        0.00642        9.47672
O          8.87158        0.06634        8.53302
H         -0.00559       10.79527       14.42924
H         -0.00400        9.46140       15.37130
O          0.56581       10.07898       14.83029
H          5.49136        6.56153       21.20432
H          3.86232        6.45900       21.15527
O          4.71278        5.93442       21.17339
H          6.91660       13.43542       15.67005
H          8.06812       12.79190       14.70745
O          7.19469       13.27738       14.72236
H         12.83792       -0.00232       13.67872
H         13.69965        1.31670       14.10798
O         12.78228        0.92431       14.05109
H          5.35738        7.01431       14.97021
H          5.90905        7.65799       13.57449
O          5.77787        6.80955       14.08608
H          1.84814        9.03252       16.75675
H          2.29527       10.47324       16.13137
O          2.52463        9.50225       16.18917
H         11.95235        8.99535       17.88870
H         11.72495        9.33092       19.47059
O         11.35566        9.45082       18.54971
H          0.83335       12.78887       20.91696
H          0.07011       11.34555       20.88608
O          0.94269       11.81047       20.74036
H          8.73970        3.66970       10.94531
H         10.34186        3.63238       11.25897
O          9.54736        3.08258       11.00348
H          9.37579        4.57020        8.53101
H         10.26134        3.19816        8.53280
O         10.30363        4.19666        8.53148
H         10.54963       -0.00118       20.70847
H         11.87613        0.83265       21.16871
O         11.54656        0.04820       20.64447
H          6.89860        2.46570       10.94468
H          7.13966        1.49232       12.23351
O          7.55421        1.86660       11.40475
H          2.77523       10.32887       18.27292
H          3.53618        8.88842       18.15999
O          3.58312        9.80780       18.54899
H         15.68946        6.41334       16.13794
H         14.93382        5.59119       14.94640
O         15.80852        5.74278       15.40541
H         13.58115        5.24993       21.15313
H         13.31833        3.65803       20.90114
O         13.81842        4.46285       20.58337
H          2.96441       13.41371       15.63561
H          4.56407       13.44006       15.96287
O          3.88030       13.43147       15.23405
H         13.15972        3.13696       12.78922
H         11.86115        3.97932       13.30966
O         12.21062        3.06746       13.09713
H          2.25396       12.27595       17.39126
H          3.35497       13.41051       17.80023
O          3.18197       12.42859       17.73172
H          8.06247       12.49865       17.29884
H          9.33320       12.41302       18.32090
O          8.90336       12.00304       17.51719
H          2.35307        2.89382       18.70093
H          1.09904        3.92315       18.88686
O          2.09448        3.85057       18.83574
H         14.00224       11.91566       17.09400
H         14.15244       13.43082       17.68427
O         14.44787       12.48173       17.78783
H         -0.02347        7.62560       12.46946
H          1.17912        6.52098       12.45245
O          0.88203        7.39808       12.82824
H         14.21822        5.70493        9.44374
H         15.74540        5.35502        9.90413
O         14.85079        4.96813        9.68331
H          3.40068        2.97020        9.85364
H          2.19711        2.00984        9.30975
O          2.79665        2.20716       10.08460
H         15.78579       12.09861       19.49119
H         14.88124       13.43108       19.76137
O         15.81335       13.07433       19.70941
H          9.66654        3.82956       13.34311
H          9.12115        2.34689       13.75653
O          9.91251        2.95716       13.76599
H         12.49576       12.71120       18.93609
H         12.78604       11.11578       18.74357
O         12.15531       11.79009       19.12603
H          5.07946        9.20303       14.90271
H          4.70728        9.60071       16.44220
O          5.40682        9.20554       15.84783
H         12.79422       13.42734       11.57066
H         11.29346       13.19195       12.16983
O         12.26745       13.02621       12.32035
H          5.51580        0.94788       18.11816
H          4.39694        2.00034       18.67236
O          4.79136        1.09004       18.79299
H         13.75759        5.79702       18.31804
H         13.80167        7.31228       18.92527
O         13.65798        6.34835       19.14661
H          2.09418        4.14219        8.52726
H          3.62438        4.71243        8.52914
O          2.65827        4.96815        8.52547
H          1.95070        6.70006       16.77107
H          2.15061        5.07934       16.77029
O          1.48065        5.81892       16.71573
H          4.21157       13.44518       19.82546
H          2.76864       12.68232       19.87725
O          3.31091       13.42938       20.26018
H         15.26745        9.39626        9.72297
H         13.98776        9.23651       10.72474
O         14.69735        9.86119       10.40063
H         15.56252        3.25743       18.47973
H         13.96980        3.61614       18.51516
O         14.63928        2.87413       18.51335
H         -0.01047       13.43065       11.36257
H          1.60576       13.45012       11.59521
O          0.78764       12.87615       11.59916
H          2.33390        4.93400       20.73418
H          2.96391        3.42951       20.81332
O          3.18142        4.40374       20.76485
H         -0.00275        1.42084        9.44775
H         -0.00084        2.77137        8.52973
O          0.15302        1.78389        8.52887
H          7.15632       12.64101       20.59776
H          7.51959       13.43147       19.21577
O          7.86660       12.80509       19.91292
H         15.81229        6.54790       20.52465
H         15.81660        5.05001       19.87427
O         15.71310        5.57202       20.72019
H          1.10163        2.19288       14.04884
H         -0.00785        3.16768       13.35205
O          0.18027        2.57296       14.13288
H          7.64073       12.31228       12.60352
H          8.77628       13.44095       12.28210
O          7.79618       13.24554       12.27906
H          9.38783        9.18949       16.26860
H         10.28436        9.30684       14.90877
O         10.31418        9.14319       15.89422
H         11.93573       13.42769        9.54531
H         12.22270       11.90668       10.06576
O         11.52730       12.61754        9.96632
H         -0.02361       -0.01873       15.77296
H          1.25358        0.99261       15.88550
O          0.25598        0.93744       15.86230
H          2.84334        3.42285       14.58984
H          4.08768        3.13920       13.57110
O          3.83654        3.32759       14.51990
H         10.96582       11.25531       17.35436
H         10.23366       11.34044       15.89717
O         11.09289       11.14449       16.36846
H         12.38534       12.05494       14.28832
H         11.52154       13.43948       14.34821
O         11.69311       12.56456       14.79972
H         10.79359       10.50072       21.16354
H         10.21364       10.93548       19.70021
O         10.06549       10.34798       20.49500
H          9.34701       -0.00463       13.04228
H          9.56507       -0.00059       11.42391
O          8.92306        0.20646       12.16131
H         15.60885        3.40946       12.75942
H         15.81121        4.97593       12.34481
O         15.20963        4.18188       12.26505
H          0.90352        9.48311       11.74225
H          1.57849        9.02932       10.32620
O          0.72823        9.30381       10.77398
H          1.51778       11.16903        9.81970
H         -0.03810       11.30915       10.29540
O          0.68339       11.71400        9.73474
H          5.99773        9.57620       12.50252
H          7.38657       10.22943       11.94475
O          6.60594       10.36863       12.55305
H          4.19144       -0.00022       15.02418
H          3.16596        1.25575       14.83025
O          3.26956        0.26570       14.74162
H          6.20794        9.80678       10.13689
H          5.75804       10.91971        9.02978
O          5.42832       10.24179        9.68591
H          6.01829       12.00648       18.42062
H          5.96885       13.44823       17.65537
O          5.60919       12.51582       17.66324
H          5.43748        1.40835       13.79460
H          6.07248        2.55266       14.77134
O          5.41202        1.80492       14.71249
H         10.95926        6.09976       18.02311
H         11.61199        7.17092       19.06870
O         11.72000        6.73035       18.17818
H          4.91802        2.75952       16.63146
H          4.67204        4.31591       17.06021
O          5.08972        3.71269       16.38165
H          7.77705       10.81281       18.98481
H          8.90386        9.84025       18.31316
O          8.32041        9.98273       19.11194
H         12.46905        9.10119       14.76367
H         12.89301        9.90450       16.12074
O         12.51036        9.05386       15.76191
H         14.91628       10.81598       12.37046
H         15.78491        9.80148       13.31012
O         15.83848       10.55794       12.65921
H         15.82476        8.40879       11.60795
H         15.13074        7.36119       10.56508
O         15.29483        7.56412       11.52980
H          4.73793       13.42949       10.80307
H          4.29966       13.43417        9.22999
O          4.34126       12.88486       10.06385
H          9.55229       13.44422       21.17341
H         11.00877       12.70579       21.16423
O         10.02007       12.56014       21.16945
H         -0.00104        1.66703       18.43339
H          1.36755        0.82525       18.14176
O          0.37498        0.76083       18.23893
H          0.83410       12.83240       14.70157
H          0.24712       12.46141       16.17958
O          1.03025       12.36847       15.56570
H         11.73244        9.57873       10.15972
H         12.15578        8.03900       10.50133
O         11.39745        8.68924       10.47118
H          3.77342       10.29605       13.51110
H          2.25105        9.70692       13.46650
O          2.95944       10.09358       14.05595
H         13.68785        3.34763       16.35071
H         13.51511        3.90226       14.82452
O         13.75953        3.10956       15.38189
H          7.55253        3.48023        9.10300
H          7.65889        1.88780        8.75728
O          8.17520        2.70177        9.02121
H         11.03589        6.75174       21.14975
H         10.45578        8.27809       21.12950
O         11.28394        7.72041       21.17351
H          2.88543        5.99687       18.63281
H          3.99950        6.36968       17.49854
O          3.52593        6.69658       18.31564
H         13.36893        1.54575       19.72085
H         11.95419        2.34840       19.57612
O         12.69861        1.90979       19.07389
H         10.28132       13.44688       16.52568
H         11.85575       13.21662       16.89289
O         10.95764       13.45227       17.26256
H          7.79815        7.12262       19.05270
H          9.41855        7.32349       19.02737
O          8.53781        7.79572       19.03676
H         13.03392        7.04011       16.44492
H         12.93723        5.41526       16.31370
O         13.02579        6.27114       15.80536
H         11.40944        2.08670       10.11501
H         11.28563        0.45848       10.13199
O         10.78161        1.31403       10.01887
H          6.74499        3.24681       17.75401
H          8.24020        2.66148       18.05135
O          7.68370        3.48996       17.99919
H         -0.00674        7.58169        9.61903
H          0.73108        6.29931       10.31026
O         -0.00482        6.58454        9.69717
H          3.90845        5.38462       15.29543
H          4.19759        5.33198       13.68910
O          3.55668        5.63541       14.39334
H          1.02762        4.61712       14.92958
H          0.25717        5.94019       14.36162
O          0.77853        5.12683       14.10583
H          7.21765        9.27469       20.95228
H          8.00004       10.69148       21.16966
O          7.10266       10.25781       21.09608
H         15.77716        2.67154       16.28197
H         15.85712        3.59507       14.93758
O         15.82843        3.60878       15.93647
H          5.43990        5.92734       19.10093
H          5.40823        4.29538       19.14970
O          4.84778        5.12123       19.09829
H          6.77066        4.81954       20.79542
H          7.97429        3.71597       20.78491
O          7.55391        4.46976       20.28104
H         13.92181        5.84957       11.63325
H         13.57255        5.35526       13.14995
O         13.93839        6.10531       12.60007
H          9.87351       12.11232       13.64954
H          8.88660       10.81159       13.62106
O          9.82967       11.11776       13.74623
H          8.41936        7.44914       21.20421
H          8.99789        5.92291       21.15321
O          8.17086        6.48337       21.12708
H          3.23473        8.01744       14.72949
H          1.60393        8.07475       14.79176
O          2.39852        7.46947       14.75938
H          2.89525       10.04952        8.52168
H          3.22796       11.64827        8.52262
O          3.62661       10.73183        8.52213
H          9.13974        0.21583       19.03396
H          7.59747        0.68892       18.78044
O          8.17908       -0.04794       19.12328
H          1.81051        6.99775        8.52551
H          3.19069        7.87054        8.51956
O          2.19265        7.92207        8.52732
H          5.82493        8.22518       19.25857
H          5.79838        9.84398       19.04531
O          6.35074        9.01692       18.94698
H         -0.02934        7.36225       16.08121
H         -0.00124        7.11847       17.69566
O          0.03615        7.80868       16.97386
H         15.52164        3.19966       21.16427
H         15.81007        1.72123       20.53359
O         15.09804        2.36842       20.80367
H          6.38070        6.11242       12.08172
H          7.33908        5.99886       10.76441
O          7.05624        5.54601       11.60923
H         10.98195        7.22631       15.05145
H          9.91012        7.01361       16.26497
O         10.88029        7.02174       16.02522
H          2.76955        0.00563       10.31193
H          2.90572        0.02233        8.68470
O          3.40140        0.12718        9.54615
H         11.01876       10.91751       11.90774
H          9.90849        9.72398       12.00509
O         10.86169        9.96801       12.18014
H          7.03148        0.52256       20.91047
H          8.59826        0.96754       21.02827
O          7.65419        1.25560       21.18489
H          5.06212        4.41684       10.16756
H          4.76418        3.54860       11.51814
O          5.38950        4.19813       11.08702
H          4.15863        9.44209       11.29246
H          2.87147       10.42978       11.47785
O          3.85699       10.39545       11.31552
H          0.88676        9.01816       21.16512
H          1.98855        7.81373       21.11926
O          1.86386        8.80476       21.15247
H          0.81295       10.07287       19.23573
H          0.09284        9.87078       17.78407
O          0.58840        9.41105       18.52019
H          6.67693       12.80018        9.70479
H          6.25529       11.84481       10.96025
O          7.02280       12.21051       10.43492
H          8.72299       11.85369        8.52766
H          7.94726       10.48826        8.97550
O          7.84818       11.36899        8.51367
H         11.55000        0.49790       17.83842
H         10.15609        1.19128       17.34554
O         10.86006        1.18894       18.05491
H         15.41495       11.32778       14.85058
H         14.03295       10.60034       14.37349
O         14.50136       11.04029       15.13889
H          2.30080       11.90865       13.00142
H          3.13442       13.30279       13.16919
O          3.03272       12.36729       13.50576
